**.minInt = 11
**.maxDoublings = 20
**.redundancy = 15
**.parent_set_size = 1
**.trickleType = "TrickleF"
sim-time-limit = 1035s
**.directory = "/mnt/ram/uniform_100/"
