**.minInt = 3
**.maxDoublings = 20
**.redundancy = 2
**.parent_set_size = 1
**.trickleType = "TrickleF"
sim-time-limit = 100663s
**.directory = "/mnt/ram/uniform_100/"
